Circuit: * G:\My Drive\DTU\Fagprojekt Elektro\Design\Spice\diffAmp.asc

Direct Newton iteration failed to find .op point.  (Use ".option noopiter" to skip.)
Starting Gmin stepping
Gmin = 10
Gmin = 1.07374
Gmin = 0.115292
Gmin = 0.0123794
Gmin = 0.00132923
Gmin = 0.000142725
Gmin = 1.5325e-005
Gmin = 1.6455e-006
Gmin = 1.76685e-007
Gmin = 1.89714e-008
Gmin = 2.03704e-009
Gmin = 2.18725e-010
Gmin = 2.34854e-011
Gmin = 2.52173e-012
Gmin = 2.70769e-013
Gmin = 0
Gmin stepping succeeded in finding the operating point.

Semiconductor Device Operating Points:
                        --- Diodes ---
Name:    d:u3:2      d:u3:1
Model:    u3:x        u3:x
Id:     -5.00e-12   -3.92e-16
Vd:     -5.00e+00   -3.91e-04
Req:     1.00e-12    1.00e-12
CAP:     0.00e+00    0.00e+00



Date: Thu Jun 08 11:05:28 2023
Total elapsed time: 0.063 seconds.

tnom = 27
temp = 27
method = trap
totiter = 406
traniter = 0
tranpoints = 0
accept = 0
rejected = 0
matrix size = 11
fillins = 0
solver = Normal
Matrix Compiler1: 378 bytes object code size
Matrix Compiler2: off  [0.1]/0.1/0.1

